%chk=bu1.chk
# pop=full b3lyp/6-31g* geom=connectivity

Title Card Required

0 1
 C                 -4.15204694   -0.70175438    0.00000000
 H                 -3.61888320   -1.62945930    0.00000000
 H                 -5.22204694   -0.70175438    0.00000000
 C                 -3.47677263    0.47322292    0.00000000
 H                 -4.00993638    1.40092784    0.00000000
 C                 -1.93677263    0.47322292    0.00000000
 H                 -1.40360889   -0.45448200    0.00000000
 C                 -1.25452923    1.64416740   -0.00000000
 H                 -1.78217170    2.57502369    0.00000000
 H                 -0.18454812    1.63781011   -0.00000000

 1 2 1.0 3 1.0 4 2.0
 2
 3
 4 5 1.0 6 1.0
 5
 6 7 1.0 8 2.0
 7
 8 9 1.0 10 1.0
 9
 10

